&time_control
run_days                            = 10,
run_hours                           = 0,
run_minutes                         = 0,
run_seconds                         = 0,
start_year                          = 2012, 2012, 2012,
start_month                         = 06,   06,   06,
start_day                           = 20,   20,   20,
start_hour                          = 00,   00,   00,
start_minute                        = 00,   00,   00,
start_second                        = 00,   00,   00,
end_year                            = 2012, 2012, 2012,
end_month                           = 06,   06,   06,
end_day                             = 30,   30,   30,
end_hour                            = 00,   00,   00,
end_minute                          = 00,   00,   00,
end_second                          = 00,   00,   00,
interval_seconds                    = 21600
input_from_file                     = .true.,.true.,.true.,
history_interval                    = 60, 60, 60,
frames_per_outfile                  = 24, 1000, 1000,
write_hist_at_0h_rst                = .true.
restart                             = .false., 
restart_interval                    = 1440,
io_form_history                     = 2
io_form_restart                     = 2, 
io_form_input                       = 2
io_form_boundary                    = 2
io_form_auxinput1                   = 2,
io_form_auxinput2                   = 2,
io_form_auxinput4                   = 2,
auxinput1_inname                    = "metdata/met_em.d<domain>.<date>",
auxinput4_inname                    = "wrflowinp_d<domain>",
auxinput4_interval_m                = 360, 360
debug_level                         = 0,
/

&domains
time_step                           = 60,
time_step_fract_num                 = 0,
time_step_fract_den                 = 1,
max_dom                             = 1,
s_we                                = 1,     1,     1,
e_we                                = 121,    112,   94,
s_sn                                = 1,     1,     1,
e_sn                                = 101,    97,    91,
s_vert                              = 1,     1,     1,
e_vert                              = 46,    28,    28,
p_top_requested                     = 10000,
num_metgrid_levels                  = 38,
num_metgrid_soil_levels             = 4,
dx                                  = 12000, 10000,  3333.33,
dy                                  = 12000, 10000,  3333.33,
grid_id                             = 1,     2,     3,
parent_id                           = 0,     1,     2,
i_parent_start                      = 1,     31,    30,
j_parent_start                      = 1,     17,    30,
parent_grid_ratio                   = 1,     3,     3,
parent_time_step_ratio              = 1,     3,     3,
feedback                            = 0,
smooth_option                       = 0
zap_close_levels                    = 50
interp_theta                        = .true.
interp_type                         = 1
t_extrap_type                       = 2
force_sfc_in_vinterp                = 0
use_levels_below_ground             = .true.
use_surface                         = .true.
lagrange_order                      = 1
sfcp_to_sfcp                        = .true.,
/
nproc_x                             = 32,    
nproc_y                             = 15,    


&physics
mp_physics                          = 6,     3,     3,
ra_lw_physics                       = 4,     1,     1,
ra_sw_physics                       = 4,     1,     1,
radt                                = 15,    30,    30,
sf_sfclay_physics                   = 1,     1,     1,
sf_surface_physics                  = 5,     2,     2,
bl_pbl_physics                      = 1,     1,     1,
bldt                                = 0,     0,     0,
topo_wind                           = 1,
cu_physics                          = 10,     1,     0,
cudt                                = 5,     5,     5,
isfflx                              = 1,
ifsnow                              = 1,
icloud                              = 1,
surface_input_source                = 1,
num_soil_layers                     = 10,
sf_urban_physics                    = 0,     0,     0,
mp_zero_out                         = 2,
mp_zero_out_thresh                  = 1.e-12
maxiens                             = 1,
maxens                              = 3,
maxens2                             = 3,
maxens3                             = 16,
ensdim                              = 144,
cu_rad_feedback                     = .false.,
sst_update                          = 1
sst_skin                            = 1
tmn_update                          = 1
usemonalb                           = .true.
num_land_cat                        = 24
/
bucket_mm                           = 1.e6
bucket_J                            = 1.e9

&fdda
grid_fdda                           = 0
xwavenum                            = 3
ywavenum                            = 3
gfdda_inname                        = "wrffdda_d<domain>",
gfdda_interval_m                    = 360,   360,   360,
gfdda_end_h                         = 720000,    24,    24,
if_no_pbl_nudging_uv                = 1,     0,     1,
if_no_pbl_nudging_t                 = 1,     0,     1,
if_no_pbl_nudging_q                 = 1
if_no_pbl_nudging_ph                = 1
guv                                 = 0.0003,     0.0003,     0.0003,
gt                                  = 0.0003,     0.0003,     0.0003,
gq                                  = 0.00001,     0.0003,     0.0003,
gph                                 = 0.00001,
if_ramping                          = 1,
dtramp_min                          = 60.0,
io_form_gfdda                       = 2,

obs_nudge_opt                       = 0
max_obs                             = 1000000,
obs_nudge_wind                      = 1
obs_coef_wind                       = 1.E-4
obs_nudge_temp                      = 1
obs_coef_temp                       = 1.E-4
obs_nudge_mois                      = 1
obs_coef_mois                       = 1.E-4
obs_rinxy                           = 100
obs_rinsig                          = 0.05,
obs_twindo                          = 0.33
obs_npfi                            = 1,
obs_ionf                            = 72, 2, 2, 2, 2
obs_idynin                          = 0,
obs_dtramp                          = 60.,
obs_ipf_errob                       = .true.
obs_ipf_nudob                       = .true.
obs_ipf_in4dob                      = .true.
obs_ipf_init                        = .true.
/

&dynamics
rk_ord                              = 3,
w_damping                           = 1,
diff_opt                            = 1,
km_opt                              = 4,
diff_6th_opt                        = 0,      0,      0,
diff_6th_factor                     = 0.12,   0.12,   0.12,
base_temp                           = 290.
damp_opt                            = 3,
zdamp                               = 1000.,  5000.,  5000.,
dampcoef                            = 0.2,    0.2,    0.2
khdif                               = 0,      0,      0,
kvdif                               = 0,      0,      0,
non_hydrostatic                     = .true., .true., .true.,
moist_adv_opt                       = 2,      1,      1,     
scalar_adv_opt                      = 2,      1,      1,     
chem_adv_opt                        = 2,      0,      0,
tke_adv_opt                         = 2,      0,      0,
time_step_sound                     = 4,      4,      4,
h_mom_adv_order                     = 5,      5,      5,
v_mom_adv_order                     = 3,      3,      3,
h_sca_adv_order                     = 5,      5,      5,
v_sca_adv_order                     = 3,      3,      3,
fft_filter_lat                      = 45.,
/

&bdy_control
periodic_x                          = .false., .false.,.false.,
symmetric_xs                        = .false.,.false.,.false.,
symmetric_xe                        = .false.,.false.,.false.,
open_xs                             = .false.,.false.,.false.,
open_xe                             = .false.,.false.,.false.,
periodic_y                          = .false.,.false.,.false.,
symmetric_ys                        = .false.,.false.,.false.,
symmetric_ye                        = .false.,.false.,.false.,
open_ys                             = .false.,.false.,.false.,
open_ye                             = .false.,.false.,.false.,
specified                           = .true., .false.,.false.,
spec_bdy_width                      = 10,
spec_zone                           = 1,
relax_zone                          = 9,
nested                              = .false., .true., .true.,
polar                               = .false. ,.false.,.false.,
/

&grib2
/

&namelist_quilt
nio_tasks_per_group = 0,
nio_groups = 1,
/
