&time_control
run_days                            = 01,
run_hours                           = 0,
run_minutes                         = 0,
run_seconds                         = 0,
start_year                          = 2016, 2016, 2016,
start_month                         = 04,   04,   04,
start_day                           = 15,   15,   15,
start_hour                          = 00,   00,   00,
start_minute                        = 00,   00,   00,
start_second                        = 00,   00,   00,
end_year                            = 2016, 2016, 2016,
end_month                           = 04,   04,   04,
end_day                             = 16,   16,   16,
end_hour                            = 00,   00,   00,
end_minute                          = 00,   00,   00,
end_second                          = 00,   00,   00,
interval_seconds                    = 21600
input_from_file                     = .true.,.true.,.true.,
history_interval                    = 1440, 1440, 1440,
frames_per_outfile                  = 1, 1, 1,
write_hist_at_0h_rst                = .true.
iofields_filename                   = "streams_io.txt","streams_io.txt","streams_io.txt"
ignore_iofields_warning             = .true.,
restart                             = .true., 
restart_interval                    = 1440,
io_form_history                     = 2
io_form_restart                     = 2, 
io_form_input                       = 2
io_form_boundary                    = 2
io_form_auxinput1                   = 2,
io_form_auxinput2                   = 2,
io_form_auxinput4                   = 2,
io_form_auxinput5                   = 2,
io_form_auxinput6                   = 2,
io_form_auxinput7                   = 2,
io_form_auxinput8                   = 2,
io_form_auxinput10                  = 2,
auxinput1_inname                    = "metdata/met_em.d<domain>.<date>",
auxinput4_inname                    = "wrflowinp_d<domain>",
auxinput6_inname                    = 'wrfbiochemi_d01',
auxinput7_inname                    = 'wrffirechemi_d<domain>',
auxinput8_inname                    = 'wrfchemi_gocart_bg_d<domain>',
auxinput10_inname                   = "wrffdda_d<domain>",
auxinput4_interval_m                = 360, 360, 360 
auxinput5_interval_m                = 60, 60, 60,
frames_per_auxinput5                = 1, 1, 1,
auxinput7_interval_m                = 60, 60, 60,
frames_per_auxinput7                = 1, 1, 1,
auxinput8_interval_m                = 864000, 86400, 86400,
auxinput10_interval_m               = 360, 360, 360,
io_form_auxhist2                    = 2,
auxhist2_outname                    = "wrf1hr_d<domain>_<date>"
auxhist2_interval                   = 60, 60, 60
frames_per_auxhist2                 = 24, 24, 24,
io_form_auxhist3                    = 2,
auxhist3_outname                    = "wrf3hr_d<domain>_<date>"
auxhist3_interval                   = 180, 180, 180
frames_per_auxhist3                 = 8, 8, 8,
io_form_auxhist4                    = 2,
auxhist4_outname                    = "wrfchemistry_d<domain>_<date>"
auxhist4_interval                   = 180, 180, 180
frames_per_auxhist4                 = 8, 8, 8,
debug_level                         = 0,
/

&domains
time_step                           = 75,
time_step_fract_num                 = 0,
time_step_fract_den                 = 1,
max_dom                             = 3,
s_we                                = 1,     1,     1,
e_we                                = 161,  166,   172,
s_sn                                = 1,     1,     1,
e_sn                                = 151,  166,   172,
s_vert                              = 1,     1,     1,
e_vert                              = 57,   57,    57,
eta_levels                          = 1.0000, 0.9980, 0.9960, 0.9930, 0.9900,
                                      0.9860, 0.9810, 0.9750, 0.9680, 0.9600,
                                      0.9510, 0.9410, 0.9300, 0.9180, 0.9030,
                                      0.8850, 0.8650, 0.8350, 0.7950, 0.7500,
                                      0.7000, 0.6500, 0.5980, 0.5420, 0.4970,
                                      0.4565, 0.4205, 0.3877, 0.3582, 0.3317,
                                      0.3078, 0.2863, 0.2670, 0.2496, 0.2329,
                                      0.2188, 0.2047, 0.1906, 0.1765, 0.1624,
                                      0.1483, 0.1342, 0.1201, 0.1060, 0.0919,
                                      0.0778, 0.0657, 0.0568, 0.0486, 0.0409,
                                      0.0337, 0.0271, 0.0209, 0.0151, 0.0097,
                                      0.0047, 0.0000
p_top_requested                     = 5000,
num_metgrid_levels                  = 38,
num_metgrid_soil_levels             = 4,
dx                                  = 22500, 4500,  1500,
dy                                  = 22500, 4500,  1500,
grid_id                             = 1,     2,     3,
parent_id                           = 0,     1,     2,
i_parent_start                      = 1,    65,    51,
j_parent_start                      = 1,    37,    62,
parent_grid_ratio                   = 1,     5,     3,
parent_time_step_ratio              = 1,     5,     3,
feedback                            = 0,
smooth_option                       = 1
zap_close_levels                    = 50
interp_theta                        = .true.
interp_type                         = 1
t_extrap_type                       = 2
force_sfc_in_vinterp                = 0
use_levels_below_ground             = .true.
use_surface                         = .true.
lagrange_order                      = 1
sfcp_to_sfcp                        = .true.,
/
nproc_x                             = 32,    
nproc_y                             = 15,    


&physics
mp_physics                          = 10,  10,   10,
progn                               = 1,    1,    1,
progn_ice                           = 0,    0,    0,
ra_lw_physics                       = 4,   4,     4,
ra_sw_physics                       = 4,   4,     4,
radt                                = 20,  5,     5,
sf_sfclay_physics                   = 1,   1,     1,
sf_surface_physics                  = 5,   5,     5,
bl_pbl_physics                      = 1,   1,     1,
bldt                                = 0,   0,     0,
topo_wind                           = 2,   2,     2,
cu_physics                          = 1,   0,     0,
cudt                                = 5,   5,     5,
isfflx                              = 1,
ifsnow                              = 1,
icloud                              = 1,
surface_input_source                = 1,
num_soil_layers                     = 10,
sf_urban_physics                    = 0,     0,     0,
mp_zero_out                         = 2,
mp_zero_out_thresh                  = 1.e-12
maxiens                             = 1,
maxens                              = 3,
maxens2                             = 3,
maxens3                             = 16,
ensdim                              = 144,
cu_rad_feedback                     = .false.,
sst_update                          = 1
sst_skin                            = 0
tmn_update                          = 1
usemonalb                           = .true.
num_land_cat                        = 24
megan_factors_file                  = 'megan21_emis_factors_c20130304.nc'
input_pft                           = .false.
/
bucket_mm                           = 1.e6
bucket_J                            = 1.e9

&fdda
grid_fdda                           = 0
xwavenum                            = 3
ywavenum                            = 3
gfdda_inname                        = "wrffdda_d<domain>",
gfdda_interval_m                    = 360,   360,   360,
gfdda_end_h                         = 720000,    24,    24,
if_no_pbl_nudging_uv                = 1,     0,     1,
if_no_pbl_nudging_t                 = 1,     0,     1,
if_no_pbl_nudging_q                 = 1
if_no_pbl_nudging_ph                = 1
guv                                 = 0.0003,     0.0003,     0.0003,
gt                                  = 0.0003,     0.0003,     0.0003,
gq                                  = 0.00001,     0.0003,     0.0003,
gph                                 = 0.00001,
if_ramping                          = 1,
dtramp_min                          = 60.0,
io_form_gfdda                       = 2,

obs_nudge_opt                       = 0
max_obs                             = 1000000,
obs_nudge_wind                      = 1
obs_coef_wind                       = 1.E-4
obs_nudge_temp                      = 1
obs_coef_temp                       = 1.E-4
obs_nudge_mois                      = 1
obs_coef_mois                       = 1.E-4
obs_rinxy                           = 100
obs_rinsig                          = 0.05,
obs_twindo                          = 0.33
obs_npfi                            = 1,
obs_ionf                            = 72, 2, 2, 2, 2
obs_idynin                          = 0,
obs_dtramp                          = 60.,
obs_ipf_errob                       = .true.
obs_ipf_nudob                       = .true.
obs_ipf_in4dob                      = .true.
obs_ipf_init                        = .true.
/

&dynamics
rk_ord                              = 3,
w_damping                           = 1,
diff_opt                            = 2, 
km_opt                              = 4,
diff_6th_opt                        = 2,      2,      2,
diff_6th_factor                     = 0.12,   0.12,   0.12,
base_temp                           = 290.
damp_opt                            = 3,
zdamp                               = 10000.,  10000.,  10000.,
dampcoef                            = 0.2,    0.2,    0.2
khdif                               = 0,      0,      0,
kvdif                               = 0,      0,      0,
non_hydrostatic                     = .true., .true., .true.,
epssm                               = 0.3,    0.6,    0.9, 
moist_adv_opt                       = 2,      2,      2,     
scalar_adv_opt                      = 2,      2,      2,     
chem_adv_opt                        = 2,      2,      2,
tke_adv_opt                         = 2,      2,      2,
time_step_sound                     = 4,      4,      4,
h_mom_adv_order                     = 5,      5,      5,
v_mom_adv_order                     = 3,      3,      3,
h_sca_adv_order                     = 5,      5,      5,
v_sca_adv_order                     = 3,      3,      3,
/
fft_filter_lat                      = 45.,

&bdy_control
periodic_x                          = .false.,.false.,.false.,
symmetric_xs                        = .false.,.false.,.false.,
symmetric_xe                        = .false.,.false.,.false.,
open_xs                             = .false.,.false.,.false.,
open_xe                             = .false.,.false.,.false.,
periodic_y                          = .false.,.false.,.false.,
symmetric_ys                        = .false.,.false.,.false.,
symmetric_ye                        = .false.,.false.,.false.,
open_ys                             = .false.,.false.,.false.,
open_ye                             = .false.,.false.,.false.,
specified                           = .true., .false.,.false.,
spec_bdy_width                      = 5,
spec_zone                           = 1,
relax_zone                          = 4,
nested                              = .false., .true., .true.,
polar                               = .false. ,.false.,.false.,
/

&grib2
/

&namelist_quilt
nio_tasks_per_group = 0,
nio_groups = 1,
/

&chem
kemit                               = 1,
kfire                               = 1,
chem_opt                            = 32, 32, 32,
chem_in_opt                         = 1,1,1
io_style_emissions                  = 101,
io_style_fireemissions              = 101,
chemdt                              = 5,4,2
bioemdt                             = 60, 60, 60
photdt                              = 60, 60, 60
emiss_inpt_opt                      = 1, 1, 1
emiss_opt                           = 3, 3, 3
phot_opt                            = 2, 2, 2
gas_drydep_opt                      = 1, 1, 1
aer_drydep_opt                      = 101, 101, 101,
settling_option                     = 1,
aer_op_opt                          = 1, 1, 1
bio_emiss_opt                       = 4, 4, 4
terrain_effect                      = .false.
gas_bc_opt                          = 1, 1,  1
gas_ic_opt                          = 1, 1,  1
aer_bc_opt                          = 1, 1,  1,
aer_ic_opt                          = 1, 1,  1,
gaschem_onoff                       = 1, 1,  1,
aerchem_onoff                       = 1, 1,  1,
wetscav_onoff                       = 1, 1,  0,
cldchem_onoff                       = 1, 1,  0,
vertmix_onoff                       = 1, 1,  1,
chem_conv_tr                        = 4, 0,  0,
chem_conv_scav                      = 1, 0,  0,
seas_opt                            = 3,
dust_opt                            = 11,
emis_dust_factor                    = 1.0,
dmsemis_opt                         = 1,
biomass_burn_opt                    = 1,  1, 1,
plumerisefire_frq                   = 60, 60, 60
plumerisefire_climate               = .true., 
have_bcs_chem                       = .true., .false., .false.,
aer_ra_feedback                     = 1,   1,     1,
aer_aerodynres_opt                  = 2,  2,   2
ne_area                             = 67 
/

