&time_control
run_days                            = 05,
run_hours                           = 0,
run_minutes                         = 0,
run_seconds                         = 0,
start_year                          = 2015, 2015, 2015,
start_month                         = 05,   05,   05,
start_day                           = 01,   01,   01,
start_hour                          = 00,   00,   00,
start_minute                        = 00,   00,   00,
start_second                        = 00,   00,   00,
end_year                            = 2015, 2015, 2015,
end_month                           = 05,   05,   05,
end_day                             = 02,   02,   02,
end_hour                            = 00,   00,   00,
end_minute                          = 00,   00,   00,
end_second                          = 00,   00,   00,
interval_seconds                    = 21600
input_from_file                     = .true.,.true.,.true.,
history_interval                    = 360, 60, 60,
frames_per_outfile                  = 4, 1000, 1000,
write_hist_at_0h_rst                = .true.
iofields_filename                   = "streams_io.txt","streams_io.txt"
ignore_iofields_warning             = .true.,
restart                             = .true., 
restart_interval                    = 1440,
io_form_history                     = 2
io_form_restart                     = 2, 
io_form_input                       = 2
io_form_boundary                    = 2
io_form_auxinput1                   = 2,
io_form_auxinput2                   = 2,
io_form_auxinput4                   = 2,
io_form_auxinput5                   = 2,
io_form_auxinput6                   = 2,
io_form_auxinput7                   = 2,
io_form_auxinput8                   = 2,
io_form_auxinput10                  = 2,
auxinput1_inname                    = "metdata/met_em.d<domain>.<date>",
auxinput4_inname                    = "wrflowinp_d<domain>",
auxinput6_inname                    = 'wrfbiochemi_d01',
auxinput7_inname                    = 'wrffirechemi_d<domain>',
auxinput8_inname                    = 'wrfchemi_gocart_bg_d<domain>',
auxinput10_inname                   = "wrffdda_d<domain>",
auxinput4_interval_m                = 360, 360
auxinput5_interval_m                = 60, 86400, 60,
frames_per_auxinput5                = 24, 1, 1000,
auxinput7_interval_m                = 60, 86400, 60,
frames_per_auxinput7                = 1, 1, 1000,
auxinput8_interval_m                = 864000, 86400, 60,
auxinput10_interval_m               = 360, 86400, 60,
io_form_auxhist2                    = 2,
auxhist2_outname                    = "wrf1hr_d<domain>_<date>"
auxhist2_interval                   = 60, 60, 60
frames_per_auxhist2                 = 24, 1, 1000,
io_form_auxhist3                    = 2,
auxhist3_outname                    = "wrf3hr_d<domain>_<date>"
auxhist3_interval                   = 180, 60, 60
frames_per_auxhist3                 = 8, 1, 1000,
io_form_auxhist4                    = 2,
auxhist4_outname                    = "wrfchemistry_d<domain>_<date>"
auxhist4_interval                   = 180, 60, 60
frames_per_auxhist4                 = 8, 1, 1000,
debug_level                         = 200,
/
io_form_auxinput12  = 2,
auxinput12_inname  = 'wrf_chem_input',

&domains
time_step                           = 75,
time_step_fract_num                 = 0,
time_step_fract_den                 = 1,
max_dom                             = 1,
s_we                                = 1,     1,     1,
e_we                                = 121,    112,   94,
s_sn                                = 1,     1,     1,
e_sn                                = 101,    97,    91,
s_vert                              = 1,     1,     1,
e_vert                              = 48,    28,    28,
eta_levels                          = 1.000, 0.998, 0.996, 0.994, 0.991,
                                      0.988, 0.983, 0.978, 0.973, 0.968,
                                      0.963, 0.953, 0.943, 0.933, 0.923,
                                      0.913, 0.903, 0.893, 0.883, 0.873,
                                      0.863, 0.853, 0.843, 0.833, 0.823,
                                      0.813, 0.803, 0.793, 0.783, 0.753,
                                      0.723, 0.683, 0.643, 0.593, 0.543,
                                      0.493, 0.443, 0.393, 0.343, 0.293,
                                      0.243, 0.193, 0.148, 0.110, 0.075,
                                      0.050, 0.025, 0.000
p_top_requested                     = 10000,
num_metgrid_levels                  = 38,
num_metgrid_soil_levels             = 4,
dx                                  = 12000, 10000,  3333.33,
dy                                  = 12000, 10000,  3333.33,
grid_id                             = 1,     2,     3,
parent_id                           = 0,     1,     2,
i_parent_start                      = 1,     31,    30,
j_parent_start                      = 1,     17,    30,
parent_grid_ratio                   = 1,     3,     3,
parent_time_step_ratio              = 1,     3,     3,
feedback                            = 0,
smooth_option                       = 0
zap_close_levels                    = 50
interp_theta                        = .true.
interp_type                         = 1
t_extrap_type                       = 2
force_sfc_in_vinterp                = 0
use_levels_below_ground             = .true.
use_surface                         = .true.
lagrange_order                      = 1
sfcp_to_sfcp                        = .true.,
/
nproc_x                             = 32,    
nproc_y                             = 15,    


&physics
mp_physics                          = 10,     3,     3,
progn                               = 1,
progn_ice                           = 0,
ice_para                            = 1,
mixcloud                            = 0,
wsubscheme                          = 0,
ra_lw_physics                       = 4,     1,     1,
ra_sw_physics                       = 4,     1,     1,
radt                                = 15,    30,    30,
sf_sfclay_physics                   = 1,     1,     1,
sf_surface_physics                  = 5,     2,     2,
bl_pbl_physics                      = 5,     1,     1,
bldt                                = 0,     0,     0,
topo_wind                           = 1,
cu_physics                          = 1,     1,     0,
cudt                                = 5,     5,     5,
isfflx                              = 1,
ifsnow                              = 1,
icloud                              = 1,
surface_input_source                = 1,
num_soil_layers                     = 10,
sf_urban_physics                    = 0,     0,     0,
mp_zero_out                         = 2,
mp_zero_out_thresh                  = 1.e-12
maxiens                             = 1,
maxens                              = 3,
maxens2                             = 3,
maxens3                             = 16,
ensdim                              = 144,
cu_rad_feedback                     = .false.,
sst_update                          = 1
sst_skin                            = 1
tmn_update                          = 1
usemonalb                           = .true.
megan_factors_file                  = 'megan21_emis_factors_c20130304.nc'
input_pft                           = .false., 
/
bucket_mm                           = 1.e6
bucket_J                            = 1.e9

&fdda
grid_fdda                           = 1
xwavenum                            = 3
ywavenum                            = 3
gfdda_inname                        = "wrffdda_d<domain>",
gfdda_interval_m                    = 360,   360,   360,
gfdda_end_h                         = 720000,    24,    24,
if_no_pbl_nudging_uv                = 1,     0,     1,
if_no_pbl_nudging_t                 = 1,     0,     1,
if_no_pbl_nudging_q                 = 1
if_no_pbl_nudging_ph                = 1
guv                                 = 0.0003,     0.0003,     0.0003,
gt                                  = 0.0003,     0.0003,     0.0003,
gq                                  = 0.00001,     0.0003,     0.0003,
gph                                 = 0.00001,
if_ramping                          = 1,
dtramp_min                          = 60.0,
io_form_gfdda                       = 2,

obs_nudge_opt                       = 0
max_obs                             = 1000000,
obs_nudge_wind                      = 1
obs_coef_wind                       = 1.E-4
obs_nudge_temp                      = 1
obs_coef_temp                       = 1.E-4
obs_nudge_mois                      = 1
obs_coef_mois                       = 1.E-4
obs_rinxy                           = 100
obs_rinsig                          = 0.05,
obs_twindo                          = 0.33
obs_npfi                            = 1,
obs_ionf                            = 72, 2, 2, 2, 2
obs_idynin                          = 0,
obs_dtramp                          = 60.,
obs_ipf_errob                       = .true.
obs_ipf_nudob                       = .true.
obs_ipf_in4dob                      = .true.
obs_ipf_init                        = .true.
/

&dynamics
rk_ord                              = 3,
w_damping                           = 1,
diff_opt                            = 1,
km_opt                              = 4,
diff_6th_opt                        = 0,      0,      0,
diff_6th_factor                     = 0.12,   0.12,   0.12,
base_temp                           = 290.
damp_opt                            = 3,
zdamp                               = 1000.,  5000.,  5000.,
dampcoef                            = 0.2,    0.2,    0.2
khdif                               = 0,      0,      0,
kvdif                               = 0,      0,      0,
non_hydrostatic                     = .true., .true., .true.,
moist_adv_opt                       = 2,      1,      1,     
scalar_adv_opt                      = 2,      1,      1,     
chem_adv_opt                        = 2,      0,      0,
tke_adv_opt                         = 2,      0,      0,
time_step_sound                     = 4,      4,      4,
h_mom_adv_order                     = 5,      5,      5,
v_mom_adv_order                     = 3,      3,      3,
h_sca_adv_order                     = 5,      5,      5,
v_sca_adv_order                     = 3,      3,      3,
fft_filter_lat                      = 45.,
/

&bdy_control
periodic_x                          = .false., .false.,.false.,
symmetric_xs                        = .false.,.false.,.false.,
symmetric_xe                        = .false.,.false.,.false.,
open_xs                             = .false.,.false.,.false.,
open_xe                             = .false.,.false.,.false.,
periodic_y                          = .false.,.false.,.false.,
symmetric_ys                        = .false.,.false.,.false.,
symmetric_ye                        = .false.,.false.,.false.,
open_ys                             = .false.,.false.,.false.,
open_ye                             = .false.,.false.,.false.,
specified                           = .true., .false.,.false.,
spec_bdy_width                      = 5,
spec_zone                           = 1,
relax_zone                          = 4,
nested                              = .false., .true., .true.,
polar                               = .false. ,.false.,.false.,
/

&grib2
/

&namelist_quilt
nio_tasks_per_group = 0,
nio_groups = 1,
/

&chem
kemit                               = 20,
kfire                               = 1,
chem_opt                            = 34,     195,
chem_in_opt                         = 1,1
io_style_emissions                  = 101,
io_style_fireemissions              = 101,
chemdt                              = 2.5,10
bioemdt                             = 60,       30,
photdt                              = 30,       30,
emiss_inpt_opt                      = 1,        101,
emiss_opt                           = 4,        3,
phot_opt                            = 2,        0,
gas_drydep_opt                      = 1,        1,
aer_drydep_opt                      = 101,      1,
settling_option                     = 1,
aer_op_opt                          = 1,1
bio_emiss_opt                       = 4,        0,
terrain_effect                      = .false.
gas_bc_opt                          = 1,        1,
gas_ic_opt                          = 1,        1,
aer_bc_opt                          = 1,        1,
aer_ic_opt                          = 1,        1,
gaschem_onoff                       = 1,        1,
aerchem_onoff                       = 1,        1,
wetscav_onoff                       = 1,        0,
cldchem_onoff                       = 1,        0,
vertmix_onoff                       = 1,        1,
chem_conv_tr                        = 4,        1,
chem_conv_scav                      = 1,        1,
seas_opt                            = 3,
dust_opt                            = 11,
emis_dust_factor                    = 1.0,
dmsemis_opt                         = 1,
biomass_burn_opt                    = 1,        0,
plumerisefire_frq                   = 60,      30,
plumerisefire_climate               = .true., 
have_bcs_chem                       = .true., .false.,
aer_ra_feedback                     = 1,        0,
aer_aerodynres_opt                  = 2,1
ne_area                             = 67 
/

