 &time_control
 start_year                          = 2007, 2007, 2007,
 start_month                         = 06,   06,   06,
 start_day                           = 18,   18,   24,
 start_hour                          = 00,   00,   00,
 start_minute                        = 00,   00,   00,
 start_second                        = 00,   00,   00,
 end_year                            = 2007, 2007, 2007,
 end_month                           = 06,   06,   06,
 end_day                             = 19,   19,   25,
 end_hour                            = 00,   12,   12,
 end_minute                          = 00,   00,   00,
 end_second                          = 00,   00,   00,
 interval_seconds                    = 21600
 input_from_file                     = .true.,.true.,.true.,
 history_interval                    = 60, 60, 60,
 frames_per_outfile                  = 1, 1, 1,
 frames_per_auxinput5                = 1
 restart                             = .false.,
 restart_interval                    = 360,
 auxinput5_interval_m                = 60, 60, 60,
 io_form_history                     = 2
 io_form_restart                     = 2
 io_form_input                       = 2
 io_form_boundary                    = 2
 io_form_auxinput5                   = 2
 io_form_auxinput4                   = 2
 debug_level                         = 0
 auxinput1_inname                    = "met_em.d<domain>.<date>"
 /

 &domains
 eta_levels   = 1.000, 0.996, 0.992, 0.988, 0.984,
                0.979, 0.975, 0.970, 0.966, 0.962,
                0.957, 0.953, 0.948, 0.943, 0.938,
                0.933, 0.928, 0.923, 0.918, 0.912,
                0.907, 0.902, 0.897, 0.891, 0.885,
                0.880, 0.874, 0.868, 0.862, 0.856,
                0.849, 0.843, 0.837, 0.831, 0.824,
                0.818, 0.810, 0.805, 0.797, 0.790,
                0.782, 0.773, 0.764, 0.753, 0.742,
                0.730, 0.715, 0.700, 0.683, 0.665,
                0.644, 0.622, 0.597, 0.569, 0.539,
                0.506, 0.469, 0.429, 0.384, 0.335,
                0.281, 0.221, 0.156, 0.083, 0.000,
 time_step                           = 15,
 time_step_fract_num                 = 0,
 time_step_fract_den                 = 1,
 max_dom                             = 1,
 e_we                                = 225,  121,    94,
 e_sn                                = 225,  121,    91,
 e_vert                              = 65,    65,    65,
 dx                                  = 10000, 2000,  3333.33,
 dy                                  = 10000, 2000,  3333.33,
 grid_id                             = 1,     2,     3,
 parent_id                           = 0,     1,     2,
 i_parent_start                      = 1,    101,    30,
 j_parent_start                      = 1,     90,    30,
 parent_grid_ratio                   = 1,     5,     3,
 parent_time_step_ratio              = 1,     4,     3,
 feedback                            = 1,
 smooth_option                       = 0,
 num_metgrid_levels                  = 27,
 p_top_requested                     = 10000,
 num_metgrid_soil_levels             = 4,
 /

 &physics
 mp_physics                          = 10,   10,     10,
 progn                               =  1,    1,     1,
 naer                                = 1e9
 ra_lw_physics                       = 3,     4,     4,
 ra_sw_physics                       = 3,     4,     4,
 radt                                = 10,    15,    30,
 cam_abs_freq_s                      = 21600
 levsiz                              = 59
 paerlev                             = 29
 cam_abs_dim1                        = 4
 cam_abs_dim2                        = 65
 sf_sfclay_physics                   = 2,     2,     1,
 sf_surface_physics                  = 2,     2,     2,
 bl_pbl_physics                      = 2,     2,     1,
 bldt                                = 0,     0,     0,
 cu_physics                          = 10,     0,     0,
 cudt                                = 10,     0,     5,
 isfflx                              = 1,
 ifsnow                              = 0,
 icloud                              = 1,
 surface_input_source                = 1,
 num_soil_layers                     = 4,
 mp_zero_out                         = 2,
 mp_zero_out_thresh                  = 1.e-8,
 sf_urban_physics                    = 0,     0,     0,
 maxiens                             = 1,
 maxens                              = 3,
 maxens2                             = 3,
 maxens3                             = 16,
 ensdim                              = 144,
 omlcall                             = 0,
 isftcflx                            = 0, 
 shallowcu_forced_ra                 = .false.,
 cu_rad_feedback                     = .true.,
 numBins                             = 21,
 thBinSize                           = 0.1,
 rBinSize                            = 1.0e-4,
 minDeepFreq                         = 0.333,
 minShallowFreq                      = 1.0e-2,
 shcu_aerosols_opt                   = 2,
 fractional_seaice                   = 1,
 /

 &fdda
 /

 &tc
 /

 &dynamics
 rk_ord                              = 3,
 w_damping                           = 1,
 diff_opt                            = 1,
 km_opt                              = 4,
 diff_6th_opt                        = 2,      ,      0,
 diff_6th_factor                     = 0.05,   ,   0.12,
 base_temp                           = 290.
 damp_opt                            = 0,
 zdamp                               = 5000.,  5000.,  5000.,
 dampcoef                            = 0.2,    0.2,    0.2
 khdif                               = 0,      0,      0,
 kvdif                               = 0,      0,      0,
 non_hydrostatic                     = .true., .true., .true.,
 use_baseparam_fr_nml                = .false.
 time_step_sound                     = 0,      0,      0,
 h_mom_adv_order                     = 5,      5,      5,
 v_mom_adv_order                     = 3,      3,      3,
 h_sca_adv_order                     = 5,      5,      5,
 v_sca_adv_order                     = 3,      3,      3,
 moist_adv_opt                       = 2,      2,      2,
 scalar_adv_opt                      = 2,      2,      2,
 chem_adv_opt                        = 2,      2,      2,
 tke_adv_opt                         = 2,      2,      2,
 /

 &bdy_control
 spec_bdy_width                      = 5,
 spec_zone                           = 1,
 relax_zone                          = 4,
 specified                           = .true., .false.,.false.,
 nested                              = .false., .true., .true.,
 /

 &grib2
 /





&chem
 kemit                               = 8,
 chem_opt                            = 202, 202, 202
 bioemdt                             = 0.25,  0.0625,   0.0625
 photdt                              = 15.,  15.,   15.
 chemdt                              = 5.0,  5.0,   5.0
 emiss_inpt_opt                      = 102,    102,    102
 io_style_emissions                  = 2
 chem_in_opt                         = 0,      0,      1
 phot_opt                            = 2,      2,      2
 gas_drydep_opt                      = 1,      1,      1
 aer_drydep_opt                      = 311,  311,      1
 aer_aerodynres_opt                  = 1,      1,      1
 bio_emiss_opt                       = 3,      3,      3
 emiss_opt                           = 13,      13,      13
 ne_area                             = 74,
 dust_opt                            = 0
 seas_opt                            = 2
 diagnostic_chem                     = 2
 gas_bc_opt                          = 101,    101,    101
 gas_ic_opt                          = 101,    101,    101
 aer_bc_opt                          = 101,    101,    101
 aer_ic_opt                          = 101,    101,    101
 gaschem_onoff                       = 1, 1, 1
 aerchem_onoff                       = 1, 1, 1
 vertmix_onoff                       = 1, 1, 1
 wetscav_onoff                       = 1, 1, 1
 cldchem_onoff                       = 0, 0, 0
 chem_conv_tr                        = 1, 0, 0
 aer_ra_feedback                     = 1, 1, 1
 aer_op_opt                          = 1, 1, 1
 have_bcs_chem                       = .true.,
/




 &namelist_quilt
 nio_tasks_per_group = 0,
 nio_groups = 1,
 /
