&time_control
 run_days                            = 2,
 run_hours                           = 0,
 run_minutes                         = 0,
 run_seconds                         = 0,
 start_year                          = 2008, 2006, 2006,
 start_month                         = 04,   03,   03,
 start_day                           = 01,   06,   06,
 start_hour                          = 00,   06,   06,
 start_minute                        = 00,   00,   00,
 start_second                        = 00,   00,   00,
 end_year                            = 2008, 2006, 2006,
 end_month                           = 04,   03,   03,
 end_day                             = 03,   30,   30,
 end_hour                            = 00,   06,   06,
 end_minute                          = 00,   00,   00,
 end_second                          = 00,   00,   00,
 history_interval                    = 60,   30,   30,
 interval_seconds                    = 21600
 input_from_file                     = .true.,.true.,.true.,
 frames_per_outfile                  = 60, 1, 1,
 restart                             = .false.,
 restart_interval                    = 14400,
 frames_per_auxinput5                =  1,  1,  1,
 io_form_history                     = 2
 io_form_restart                     = 2
 io_form_input                       = 2
 io_form_boundary                    = 2
 io_form_auxinput4                   = 2
 io_form_auxinput5                   = 2
 debug_level                         = 0
 auxinput1_inname                    = "met_em.d<domain>.<date>"
 auxinput4_inname                    = "wrflowinp_d<domain>",
 auxinput4_interval_m                = 360, 360,
 auxinput5_interval_m                = 360, 360, 60,
 auxinput11_interval_m               = 1, 1, 1,
 auxinput4_end_h                     = 800, 576, 576,
 auxinput11_end_h                    = 800, 576, 576,
 /

&domains
 eta_levels   =   1.000,  0.985,  0.969,  0.954,  0.939,
                  0.923,  0.908,  0.893,  0.878,  0.862,
                  0.847,  0.832,  0.816,  0.796,  0.770,
                  0.745,  0.719,  0.694,  0.668,  0.630,
                  0.592,  0.554,  0.515,  0.477,  0.439,
                  0.401,  0.362,  0.324,  0.274,  0.229,
                  0.192,  0.160,  0.133,  0.110,  0.090,
                  0.074,  0.060,  0.048,  0.037,  0.028,
                  0.021,  0.014,  0.009,  0.004,  0.000
 time_step                           = 120,
 time_step_fract_num                 = 0,
 time_step_fract_den                 = 1,
 max_dom                             = 1,
 e_we                                = 74,    112,   94,
 e_sn                                = 61,    97,    91,
 e_vert                              = 30,    30,    30,
 p_top_requested                     = 5000,
 num_metgrid_levels                  = 27,
 num_metgrid_soil_levels             = 4,
 dx                                  = 30000, 10000,  3333.33,
 dy                                  = 30000, 10000,  3333.33,
 grid_id                             = 1,     2,     3,
 parent_id                           = 0,     1,     2,
 i_parent_start                      = 0,     71,    17,
 j_parent_start                      = 0,     39,    20,
 parent_grid_ratio                   = 1,     4,     3,
 parent_time_step_ratio              = 1,     2,     1,
 feedback                            = 0,
 smooth_option                       = 0
 num_metgrid_levels                  = 27 
 p_top_requested                     = 2000.
 /

&physics
 mp_physics                          = 19,     2,     2,
 progn                               = 0,     1,     1,
 naer                                = 1e9
 accum_mode                          = 172.7e6
 aitken_mode                         = 0.0e6
 coarse_mode                         = 1.1e6
 ra_lw_physics                       = 4,     1,     1,
 ra_sw_physics                       = 4,     2,     2,
 radt                                = 15,    15,    15,
 sf_sfclay_physics                   = 7,     1,     1,
 sf_surface_physics                  = 2,     2,     2,
 bl_pbl_physics                      = 9,     9,     1,
 bldt                                = 0,     0,     0,
 cu_physics                          = 7,     0,     0,
 cudt                                = 5,     5,     5,
 shcu_physics                        = 2,     0,     0, 
 isfflx                              = 1,
 ifsnow                              = 0,
 icloud                              = 1,
 surface_input_source                = 1,
 num_soil_layers                     = 4,
 mp_zero_out                         = 0,
 mp_zero_out_thresh                  = 1.e-14
 maxiens                             = 1,
 maxens                              = 3,
 maxens2                             = 3,
 maxens3                             = 16,
 ensdim                              = 144,
 cu_rad_feedback                     =.false.,
 sst_update                          = 1,
 /

&fdda
 grid_fdda                    =   1,    0,    0,
 gfdda_inname                 = "wrffdda_d<domain>",
 gfdda_end_h                  = 780,   24,   24,
 gfdda_interval_m             = 360,  360,  360,
 fgdt                         =   0,    0,    0,
 if_no_pbl_nudging_uv         =   0,    0,    0,
 if_no_pbl_nudging_t          =   0,    1,    1,
 if_no_pbl_nudging_q          =   1,    1,    1,
 if_zfac_uv                   =   0,    1,    1,
  k_zfac_uv                   =   1,   10,   10,
 if_zfac_t                    =   0,    0,    0,
  k_zfac_t                    =   1,   10,   10,
 if_zfac_q                    =   1,    0,    0,
  k_zfac_q                    =  40,   10,   10,
 guv                          = 0.0003, 0.0003, 0.0003,
 gt                           = 0.0003, 0.0003, 0.0003,
 gq                           = 0.0003, 0.0003, 0.0003,
 if_ramping                   = 1,
 dtramp_min                   = 60.0,
 io_form_gfdda                = 2,
/

&dynamics
 rk_ord                              = 3,
 w_damping                           = 1,
 diff_opt                            = 1,
 km_opt                              = 4,
 diff_6th_opt                        = 0,     1, 
 diff_6th_factor                     = 0.12,  0.12,
 damp_opt                            = 0,
 dampcoef                            = 0.2,    0.2,    0.2
 zdamp                               = 5000.,  5000.,  5000.,
 khdif                               =   0,      0,      0,
 kvdif                               =   0,      0,      0,
 smdiv                               = 0.1,    0.1,    0.1,
 emdiv                               = 0.01,   0.01,   0.01,
 epssm                               = 0.1,    0.1,    0.1
 mix_full_fields                     = .true., .true., .true.,
 non_hydrostatic                     = .true., .true., .true.,
 use_baseparam_fr_nml                = .false.
 time_step_sound                     = 0,      0,      0,
 h_mom_adv_order                     = 5,      5,      5,
 v_mom_adv_order                     = 3,      3,      3,
 h_sca_adv_order                     = 5,      5,      5,
 v_sca_adv_order                     = 3,      3,      3,
 moist_adv_opt                       = 2,      2,      1, 
 chem_adv_opt                        = 2,      2,      1, 
 scalar_adv_opt                      = 2,      2,      1, 
 tke_adv_opt                         = 2,      2,      1, 
 /

&bdy_control
 spec_bdy_width                      = 4,
 spec_zone                           = 1,
 relax_zone                          = 3,
 specified                           = .true., .false.,.false.,
 periodic_x                          = .false.,.false.,.false.,
 symmetric_xs                        = .false.,.false.,.false.,
 symmetric_xe                        = .false.,.false.,.false.,
 open_xs                             = .false.,.false.,.false.,
 open_xe                             = .false.,.false.,.false.,
 periodic_y                          = .false.,.false.,.false.,
 symmetric_ys                        = .false.,.false.,.false.,
 symmetric_ye                        = .false.,.false.,.false.,
 open_ys                             = .false.,.false.,.false.,
 open_ye                             = .false.,.false.,.false.,
 nested                              = .false., .true., .true.,
 /

&grib2
/

&chem
 kemit                               = 44,
 chem_opt                            = 503,198, 198
 cam_mam_mode                        = 3
 cam_mam_nspec                       = 74
 CAM_MP_MAM_cpled                    = .true.
 bioemdt                             = 1,  0.5,   30.
 photdt                              = 60.,  15.,   15.
 chemdt                              = 5.0,  5.0,   5.0
 emiss_inpt_opt                      = 104,    102,    102
 io_style_emissions                  = 2
 chem_in_opt                         = 1,      0,      1
 phot_opt                            = 2,      3,      2
 gas_drydep_opt                      = 1,      1,      1
 aer_drydep_opt                      = 101,  101,      1
 aer_aerodynres_opt                  = 1,      1,      1
 bio_emiss_opt                       = 0,      3,      3
 emiss_opt                           = 10,      13,      13
 ne_area                             = 74,
 dust_opt                            = 0 
 seas_opt                            = 0
 gas_bc_opt                          = 101,    101,    101
 gas_ic_opt                          = 101,    101,    101
 aer_bc_opt                          = 101,    101,    101
 aer_ic_opt                          = 101,    101,    101
 gaschem_onoff                       = 1, 1, 1
 aerchem_onoff                       = 1, 1, 1
 vertmix_onoff                       = 1, 1, 1
 wetscav_onoff                       = 1, 0, 1
 cldchem_onoff                       = 1, 0, 1
 chem_conv_tr                        = 0, 0, 0
 aer_ra_feedback                     = 1, 0, 1
 aer_op_opt                          = 1, 0, 1
 have_bcs_chem                       = .true.,
/

 &namelist_quilt
 nio_tasks_per_group = 0,
 nio_groups = 1,
 /

